8

C  0.00000000  0.00000000   0.66705080
C  0.00000000  0.00000000  -0.66705080
N  0.00000000  0.63194945   0.34996078
N  0.00000000 -0.63194945   0.34996078
N  0.00000000  0.63194945  -0.34996078
N  0.00000000 -0.63194945  -0.34996078
H  0.00000000  0.00000000   1.23730854
H  0.00000000  0.00000000  -1.23730854